Circuit: * C:\Users\Filip.Filip\Documents\VST104\PSpiceModels\Draft1.asc

Questionable use of curly braces in "b§e_u4_abm7 u4_fet_mode 0 v=if(v(lc_mode)<0.5,({v(i_sense)*52.3+0.8}*1u),0) "
    Error: undefined symbol in: "[v](i_sense)*52.3+0.8"
Questionable use of curly braces in "b§e_u4_abm5 u4_n14601775 0 v=if(v(ilim_en)>0.5,min({v(vin)-2.2-62.22m},6),0) "
    Error: undefined symbol in: "[v](vin)-2.2-62.22m"
Questionable use of curly braces in "b§e_u3_abm5 u3_n17091790 0 v={(-2.7848e-04*v(ilim_value)**3+3.5078e-03*v(ilim_value)**2-9.4914e-03*v(ilim_value)+1.6967e-03)*v(u3_vdiff)*2+(-6.7920e-03*v(ilim_value)**3+5.5244e-02*v(ilim_value)**2-1.9168e-01*v(ilim_value)+2.7203e-02)*v(u3_vdiff)+(4.6537e-03*v(ilim_value)**3-3.8618e-02*v(ilim_value)**2+1.5673e-01*v(ilim_value)+3.8883e-02)} "
    Error: undefined symbol in: "(-2.7848e-04*[v](ilim_value)**3+3.5078e-03*v(ilim_value)**2-9.4914e-03*v(ilim_value)+1.6967e-03)*v(u3_vdiff)*2+(-6.7920e-03*v(ilim_value)**3+5.5244e-02*v(ilim_value)**2-1.9168e-01*v(ilim_value)+2.7203e-02)*v(u3_vdiff)+(4.6537e-03*v(ilim_value)**3-3.8618e-02*v(ilim_value)**2+1.5673e-01*v(ilim_value)+3.8883e-02)"
Questionable use of curly braces in "b§e_u3_abm7 u3_n17091939 0 v=if(v(u3_vdiff)<1.001,v(ilim_value),(v(ilim_value)+{v(ilim_value)*v(u3_n17091763)/100})) "
    Error: undefined symbol in: "[v](ilim_value)*v(u3_n17091763)/100"
Questionable use of curly braces in "b§e_abmgate yint 0 v={if(v(a)>{{vthresh}}&v(b)>{{vthresh}},{{vss}},{{vdd}})}"
    Error: undefined symbol in: "if([v](a)>((vthresh))&v(b)>((vthresh)),((vss)),((vdd)))"
Questionable use of curly braces in "b§e_abmgate yint 0 v={if(v(a)>{{vthresh}},{{vdd}},{{vss}})}"
    Error: undefined symbol in: "if([v](a)>((vthresh)),((vdd)),((vss)))"
Questionable use of curly braces in "b§e_abmgate yint 0 v={if(v(a)>{{vthresh}}|v(b)>{{vthresh}},{{vdd}},{{vss}})}"
    Error: undefined symbol in: "if([v](a)>((vthresh))|v(b)>((vthresh)),((vdd)),((vss)))"
Questionable use of curly braces in "b§e_abmgate yint 0 v={if(v(a)>{{vthresh}}|v(b)>{{vthresh}},{{vdd}},{{vss}})}"
    Error: undefined symbol in: "if([v](a)>((vthresh))|v(b)>((vthresh)),((vdd)),((vss)))"
Questionable use of curly braces in "b§e_abmgate yint 0 v={if(v(a)>{{vthresh}}|v(b)>{{vthresh}},{{vdd}},{{vss}})}"
    Error: undefined symbol in: "if([v](a)>((vthresh))|v(b)>((vthresh)),((vdd)),((vss)))"
Questionable use of curly braces in "b§e_abmgate yint 0 v={if(v(a)>{{vthresh}},{{vss}},{{vdd}})}"
    Error: undefined symbol in: "if([v](a)>((vthresh)),((vss)),((vdd)))"
Questionable use of curly braces in "b§e_abmgate yint 0 v={if(v(a)>{{vthresh}},{{vss}},{{vdd}})}"
    Error: undefined symbol in: "if([v](a)>((vthresh)),((vss)),((vdd)))"
Questionable use of curly braces in "b§e_abmgate yint 0 v={if(v(a)>{{vthresh}}|v(b)>{{vthresh}},{{vdd}},{{vss}})}"
    Error: undefined symbol in: "if([v](a)>((vthresh))|v(b)>((vthresh)),((vdd)),((vss)))"
Questionable use of curly braces in "b§e_abmgate yint 0 v={if(v(a)>{{vthresh}},{{vss}},{{vdd}})}"
    Error: undefined symbol in: "if([v](a)>((vthresh)),((vss)),((vdd)))"
Questionable use of curly braces in "b§e_abmgate yint 0 v={if(v(a)>{{vthresh}},{{vss}},{{vdd}})}"
    Error: undefined symbol in: "if([v](a)>((vthresh)),((vss)),((vdd)))"
Questionable use of curly braces in "b§e_abmgate yint 0 v={if(v(a)>{{vthresh}}|v(b)>{{vthresh}},{{vdd}},{{vss}})}"
    Error: undefined symbol in: "if([v](a)>((vthresh))|v(b)>((vthresh)),((vdd)),((vss)))"
Questionable use of curly braces in "b§e_abmgate yint 0 v={if(v(a)>{{vthresh}}&v(b)>{{vthresh}},{{vdd}},{{vss}})}"
    Error: undefined symbol in: "if([v](a)>((vthresh))&v(b)>((vthresh)),((vdd)),((vss)))"
Questionable use of curly braces in "b§e_abmgate yint 0 v={if(v(a)>{{vthresh}},{{vss}},{{vdd}})}"
    Error: undefined symbol in: "if([v](a)>((vthresh)),((vss)),((vdd)))"
Questionable use of curly braces in "b§e_abmgate yint 0 v={if(v(a)>{{vthresh}},{{vss}},{{vdd}})}"
    Error: undefined symbol in: "if([v](a)>((vthresh)),((vss)),((vdd)))"
Questionable use of curly braces in "b§e_abmgate yint 0 v={if(v(a)>{{vthresh}}&v(b)>{{vthresh}},{{vdd}},{{vss}})}"
    Error: undefined symbol in: "if([v](a)>((vthresh))&v(b)>((vthresh)),((vdd)),((vss)))"
Questionable use of curly braces in "b§e_abmgate yint 0 v={if(v(a)>{{vthresh}}&v(b)>{{vthresh}}&v(c)>{{vthresh}}&v(d)>{{vthresh}},{{vdd}},{{vss}})}"
    Error: undefined symbol in: "if([v](a)>((vthresh))&v(b)>((vthresh))&v(c)>((vthresh))&v(d)>((vthresh)),((vdd)),((vss)))"
Questionable use of curly braces in "b§e_abmgate yint 0 v={if(v(a)>{{vthresh}},{{vss}},{{vdd}})}"
    Error: undefined symbol in: "if([v](a)>((vthresh)),((vss)),((vdd)))"
Questionable use of curly braces in "b§e_abmgate1 yint1 0 v={if(v(a)>{{vthresh}},{{vdd}},{{vss}})}"
    Error: undefined symbol in: "if([v](a)>((vthresh)),((vdd)),((vss)))"
Questionable use of curly braces in "b§e_abmgate2 yint3 0 v={if(v(yint2)>{{vthresh}},{{vss}},{{vdd}})}"
    Error: undefined symbol in: "if([v](yint2)>((vthresh)),((vss)),((vdd)))"
Questionable use of curly braces in "b§e_abmgate yint 0 v={if(v(a)>{{vthresh}},{{vdd}},{{vss}})}"
    Error: undefined symbol in: "if([v](a)>((vthresh)),((vdd)),((vss)))"
Questionable use of curly braces in "b§e_abmgate yint 0 v={if(v(a)>{{vthresh}}&v(b)>{{vthresh}},{{vdd}},{{vss}})}"
    Error: undefined symbol in: "if([v](a)>((vthresh))&v(b)>((vthresh)),((vdd)),((vss)))"
Questionable use of curly braces in "b§e_abmgate yint 0 v={if(v(a)>{{vthresh}}&v(b)>{{vthresh}},{{vdd}},{{vss}})}"
    Error: undefined symbol in: "if([v](a)>((vthresh))&v(b)>((vthresh)),((vdd)),((vss)))"
Questionable use of curly braces in "b§e_abmgate yint 0 v={if(v(a)>{{vthresh}}&v(b)>{{vthresh}},{{vdd}},{{vss}})}"
    Error: undefined symbol in: "if([v](a)>((vthresh))&v(b)>((vthresh)),((vdd)),((vss)))"
Questionable use of curly braces in "b§e_abmgate yint 0 v={if(v(a)>{{vthresh}},{{vss}},{{vdd}})}"
    Error: undefined symbol in: "if([v](a)>((vthresh)),((vss)),((vdd)))"
Questionable use of curly braces in "b§e_abmgate yint 0 v={if(v(a)>{{vthresh}}&v(b)>{{vthresh}},{{vdd}},{{vss}})}"
    Error: undefined symbol in: "if([v](a)>((vthresh))&v(b)>((vthresh)),((vdd)),((vss)))"
Questionable use of curly braces in "b§e_abmgate yint 0 v={if(v(a)>{{vthresh}},{{vdd}},{{vss}})}"
    Error: undefined symbol in: "if([v](a)>((vthresh)),((vdd)),((vss)))"
Questionable use of curly braces in "b§e_abmgate yint 0 v={if(v(a)>{{vthresh}},{{vdd}},{{vss}})}"
    Error: undefined symbol in: "if([v](a)>((vthresh)),((vdd)),((vss)))"
Questionable use of curly braces in "b§e_abmgate yint 0 v={if(v(a)>{{vthresh}},{{vdd}},{{vss}})}"
    Error: undefined symbol in: "if([v](a)>((vthresh)),((vdd)),((vss)))"
Questionable use of curly braces in "b§e_abmgate yint 0 v={if(v(a)>{{vthresh}}&v(b)>{{vthresh}},{{vdd}},{{vss}})}"
    Error: undefined symbol in: "if([v](a)>((vthresh))&v(b)>((vthresh)),((vdd)),((vss)))"
Questionable use of curly braces in "b§e_abmgate yint 0 v={if(v(a)>{{vthresh}},{{vss}},{{vdd}})}"
    Error: undefined symbol in: "if([v](a)>((vthresh)),((vss)),((vdd)))"
Questionable use of curly braces in "b§e_abmgate yint 0 v={if(v(a)>{{vthresh}},{{vdd}},{{vss}})}"
    Error: undefined symbol in: "if([v](a)>((vthresh)),((vdd)),((vss)))"
Direct Newton iteration failed to find .op point.  (Use ".option noopiter" to skip.)
Starting Gmin stepping
Gmin = 10
Gmin = 1.07374
Gmin = 0.115292
Gmin = 0.0123794
Gmin = 0.00132923
Gmin = 0.000142725
Gmin = 1.5325e-005
Gmin = 1.6455e-006
vernier = 0.5
vernier = 0.25
vernier = 0.125
vernier = 0.0625
vernier = 0.03125
vernier = 0.015625
vernier = 0.0078125
Gmin = 1.05312e-006
vernier = 0.00390625
vernier = 0.00195313
vernier = 0.000976563
vernier = 0.000488281
Gmin = 0
Gmin stepping failed

Starting source stepping with srcstepmethod=0
Source Step = 3.0303%
Source Step = 33.3333%
Source Step = 63.6364%
Source Step = 93.9394%
Source Step = 93.9542%
Source Step = 93.9838%
Source Step = 94.0134%
Source Step = 94.043%
Source Step = 94.0726%
vernier = 0.00146484
Source Step = 94.1051%
Source Step = 94.1495%
Source Step = 94.1939%
Source Step = 94.2383%
Source Step = 94.2827%
vernier = 0.00219727
Source Step = 94.3293%
Source Step = 94.3959%
Source Step = 94.4624%
Source Step = 94.529%
Source Step = 94.5956%
Source Step = 94.6622%
vernier = 0.0032959
Source Step = 94.7621%
Source Step = 94.8619%
Source Step = 94.9618%
Source Step = 95.0617%
Source Step = 95.1616%
vernier = 0.00494385
Source Step = 95.3064%
Source Step = 95.4562%
Source Step = 95.606%
Source Step = 95.7558%
Source Step = 95.9057%
vernier = 0.00741577
Source Step = 96.1154%
Source Step = 96.3401%
Source Step = 96.5648%
Source Step = 96.7896%
Source Step = 97.0143%
vernier = 0.0111237
Source Step = 97.3176%
Source Step = 97.6547%
Source Step = 97.9918%
Source Step = 98.3289%
Source Step = 98.666%
vernier = 0.0166855
Source Step = 99.1042%
Source Step = 99.6098%
Source stepping succeeded in finding the operating point.

Ignoring empty pin current: Ix(u1:pgth)
Ignoring empty pin current: Ix(u1:en_uvlo)
Ignoring empty pin current: Ix(u1:ovp)
Ignoring empty pin current: Ix(u1:pad)
Ignoring empty pin current: Ix(u1:pgth)
Ignoring empty pin current: Ix(u1:en_uvlo)
Ignoring empty pin current: Ix(u1:ovp)
Ignoring empty pin current: Ix(u1:pad)

Date: Thu Jul 16 19:50:18 2020
Total elapsed time: 5.383 seconds.

tnom = 27
temp = 27
method = modified trap
totiter = 27091
traniter = 18355
tranpoints = 3691
accept = 2936
rejected = 755
matrix size = 390
fillins = 326
solver = Normal
Thread vector: 23.2/12.1[8] 12.0/4.4[8] 28.8/8.5[8] 0.9/3.3[1]  2592/500
Matrix Compiler1: 26.47 KB object code size  12.1/5.9/[2.6]
Matrix Compiler2: 30.64 KB object code size  9.9/11.0/[2.1]

