Circuit: * C:\Users\Filip.Filip\Documents\VST104\SpiceSimulations\power_protection\Draft1.asc

Instance "m:u2:2": Length shorter than recommended for a level 3 MOSFET.
Instance "m:u2:1": Length shorter than recommended for a level 3 MOSFET.
Instance "m:u1:2": Length shorter than recommended for a level 3 MOSFET.
Instance "m:u1:1": Length shorter than recommended for a level 3 MOSFET.
Direct Newton iteration for .op point succeeded.

Date: Mon Aug 10 20:12:22 2020
Total elapsed time: 0.095 seconds.

tnom = 27
temp = 27
method = modified trap
totiter = 2089
traniter = 2084
tranpoints = 1042
accept = 1042
rejected = 0
matrix size = 24
fillins = 23
solver = Normal
Matrix Compiler1: 3.19 KB object code size  0.5/0.3/[0.2]
Matrix Compiler2: 2.49 KB object code size  0.2/0.3/[0.2]

