Circuit: * C:\Users\Filip.Filip\Documents\VST104\SpiceSimulations\power_protection\power_protection.asc

WARNING: Less than two connections to node NC_01.  This node is used by R5.
Instance "m:u3:1": Width narrower than recommended for a level 3 MOSFET.
Instance "m:u8:1": Width narrower than recommended for a level 3 MOSFET.
Instance "m:u7:1": Width narrower than recommended for a level 3 MOSFET.
Instance "m:u6:1": Width narrower than recommended for a level 3 MOSFET.
Instance "m:u4:1": Width narrower than recommended for a level 3 MOSFET.
Direct Newton iteration failed to find .op point.  (Use ".option noopiter" to skip.)
Starting Gmin stepping
Gmin = 10
Gmin = 1.07374
Gmin = 0.115292
Gmin = 0.0123794
Gmin = 0.00132923
Gmin = 0.000142725
Gmin = 1.5325e-005
Gmin = 1.6455e-006
Gmin = 1.76685e-007
Gmin = 1.89714e-008
Gmin = 2.03704e-009
Gmin = 2.18725e-010
Gmin = 2.34854e-011
Gmin = 2.52173e-012
Gmin = 2.70769e-013
Gmin = 0
Gmin stepping succeeded in finding the operating point.

Changing Tseed to 1e-008

Date: Tue Aug 11 01:02:47 2020
Total elapsed time: 0.615 seconds.

tnom = 27
temp = 27
method = modified trap
totiter = 2566
traniter = 2089
tranpoints = 1041
accept = 1040
rejected = 0
matrix size = 148
fillins = 130
solver = Normal
Thread vector: 13.5/10.7[3] 3.0/3.6[1] 4.5/4.9[1] 0.6/2.1[1]  2592/500
Matrix Compiler1: 14.06 KB object code size  2.4/1.3/[0.7]
Matrix Compiler2: 13.60 KB object code size  2.1/2.8/[1.5]

