Circuit: * C:\Users\Filip.Filip\Documents\VST104\board_sierra\simulations\i2c_enable\i2c_enable.asc

Direct Newton iteration for .op point succeeded.

Date: Wed Jul 01 09:14:16 2020
Total elapsed time: 4.031 seconds.

tnom = 27
temp = 27
method = modified trap
totiter = 2861188
traniter = 2861178
tranpoints = 1368966
accept = 1132019
rejected = 236947
matrix size = 20
fillins = 0
solver = Normal
Matrix Compiler1: 1004 bytes object code size  0.4/0.3/[0.2]
Matrix Compiler2: 1.54 KB object code size  0.3/0.4/[0.2]

